* NGSPICE file created from clkdiv_parax.ext - technology: gf180mcuD

.subckt clkdiv_parax VDD VSS ana_vco_in avo[0] avo[1] avo[2] avo[3] avo[4] avo[5]
+ dac_vco_in dvo[0] dvo[1] dvo[2] dvo[3] dvo[4] dvo[5] uio_oe[0] uio_oe[1] uio_oe[2]
+ uio_oe[3] uio_oe[4] uio_oe[5] uio_oe[6] uio_oe[7]
X0 a_14684_3160# a_14596_3204# VSS VSS nfet_05v0 ad=0.3608p pd=2.52u as=0.3608p ps=2.52u w=0.82u l=1u
X1 a_14572_16839# a_14484_16936# VSS VSS nfet_05v0 ad=0.3608p pd=2.52u as=0.3608p ps=2.52u w=0.82u l=1u
X2 VDD.t1170 a_17260_8999# a_17172_9096# VDD.t1169 pfet_05v0 ad=0.5368p pd=3.32u as=0.5368p ps=3.32u w=1.22u l=1u
X3 VDD.t41 a_16028_4728# a_15940_4772# VDD.t40 pfet_05v0 ad=0.5368p pd=3.32u as=0.5368p ps=3.32u w=1.22u l=1u
X4 VDD.t978 a_13004_9432# a_12916_9476# VDD.t977 pfet_05v0 ad=0.5368p pd=3.32u as=0.5368p ps=3.32u w=1.22u l=1u
X5 VDD.t1890 a_16028_1592# a_15940_1636# VDD.t1889 pfet_05v0 ad=0.5368p pd=3.32u as=0.5368p ps=3.32u w=1.22u l=1u
X6 a_1916_2727# a_1828_2824# VSS VSS nfet_05v0 ad=0.3608p pd=2.52u as=0.3608p ps=2.52u w=0.82u l=1u
X7 a_21964_7431# a_21876_7528# VSS VSS nfet_05v0 ad=0.3608p pd=2.52u as=0.3608p ps=2.52u w=0.82u l=1u
X8 VDD.t1539 a_18380_18407# a_18292_18504# VDD.t1538 pfet_05v0 ad=0.5368p pd=3.32u as=0.5368p ps=3.32u w=1.22u l=1u
X9 a_6396_14136# a_6308_14180# VSS VSS nfet_05v0 ad=0.3608p pd=2.52u as=0.3608p ps=2.52u w=0.82u l=1u
X10 VDD.t306 a_21516_5863# a_21428_5960# VDD.t305 pfet_05v0 ad=0.5368p pd=3.32u as=0.5368p ps=3.32u w=1.22u l=1u
X11 VDD.t93 a_15468_7431# a_15380_7528# VDD.t92 pfet_05v0 ad=0.5368p pd=3.32u as=0.5368p ps=3.32u w=1.22u l=1u
X12 a_20284_17272# a_20196_17316# VSS VSS nfet_05v0 ad=0.3608p pd=2.52u as=0.3608p ps=2.52u w=0.82u l=1u
X13 a_21852_14136# a_21764_14180# VSS VSS nfet_05v0 ad=0.3608p pd=2.52u as=0.3608p ps=2.52u w=0.82u l=1u
X14 VDD.t1990 a_21516_2727# a_21428_2824# VDD.t1989 pfet_05v0 ad=0.5368p pd=3.32u as=0.5368p ps=3.32u w=1.22u l=1u
X15 VDD.t1547 a_14796_9432# a_14708_9476# VDD.t1546 pfet_05v0 ad=0.5368p pd=3.32u as=0.5368p ps=3.32u w=1.22u l=1u
X16 a_6396_11000# a_6308_11044# VSS VSS nfet_05v0 ad=0.3608p pd=2.52u as=0.3608p ps=2.52u w=0.82u l=1u
X17 a_17862_17744# ana_div_chain\[4\]_dff_notouch_.Q VDD.t1696 VDD.t1695 pfet_05v0 ad=0.5368p pd=3.32u as=0.4941p ps=2.03u w=1.22u l=0.5u
X18 VDD.t769 a_19052_15704# a_18964_15748# VDD.t768 pfet_05v0 ad=0.5368p pd=3.32u as=0.5368p ps=3.32u w=1.22u l=1u
X19 VDD.t422 a_11772_14136# a_11684_14180# VDD.t421 pfet_05v0 ad=0.5368p pd=3.32u as=0.5368p ps=3.32u w=1.22u l=1u
X20 VDD.t2074 a_8524_13703# a_8436_13800# VDD.t2073 pfet_05v0 ad=0.5368p pd=3.32u as=0.5368p ps=3.32u w=1.22u l=1u
X21 VDD.t2019 a_1020_6296# a_932_6340# VDD.t1786 pfet_05v0 ad=0.5368p pd=3.32u as=0.5368p ps=3.32u w=1.22u l=1u
X22 VDD.t757 a_1020_3160# a_932_3204# VDD.t485 pfet_05v0 ad=0.5368p pd=3.32u as=0.5368p ps=3.32u w=1.22u l=1u
X23 VDD.t37 a_1468_4295# a_1380_4392# VDD.t36 pfet_05v0 ad=0.5368p pd=3.32u as=0.5368p ps=3.32u w=1.22u l=1u
X24 VDD.t1870 a_1468_1159# a_1380_1256# VDD.t297 pfet_05v0 ad=0.5368p pd=3.32u as=0.5368p ps=3.32u w=1.22u l=1u
X25 a_6844_12568# a_6756_12612# VSS VSS nfet_05v0 ad=0.3608p pd=2.52u as=0.3608p ps=2.52u w=0.82u l=1u
X26 a_19388_9432# a_19300_9476# VSS VSS nfet_05v0 ad=0.3608p pd=2.52u as=0.3608p ps=2.52u w=0.82u l=1u
X27 a_19388_6296# a_19300_6340# VSS VSS nfet_05v0 ad=0.3608p pd=2.52u as=0.3608p ps=2.52u w=0.82u l=1u
X28 dac_div_chain\[4\]_inv_notouch_.I a_11796_16577# VSS VSS nfet_05v0 ad=0.2178p pd=1.87u as=0.153p ps=1.195u w=0.495u l=0.6u
X29 a_16144_15055# a_13924_15047# a_15899_15423# VSS nfet_05v0 ad=43.2f pd=0.6u as=93.59999f ps=0.88u w=0.36u l=0.6u
X30 a_7292_3160# a_7204_3204# VSS VSS nfet_05v0 ad=0.3608p pd=2.52u as=0.3608p ps=2.52u w=0.82u l=1u
X31 a_6284_15271# a_6196_15368# VSS VSS nfet_05v0 ad=0.3608p pd=2.52u as=0.3608p ps=2.52u w=0.82u l=1u
X32 a_2364_7864# a_2276_7908# VSS VSS nfet_05v0 ad=0.3608p pd=2.52u as=0.3608p ps=2.52u w=0.82u l=1u
X33 a_6284_12135# a_6196_12232# VSS VSS nfet_05v0 ad=0.3608p pd=2.52u as=0.3608p ps=2.52u w=0.82u l=1u
X34 a_2364_4728# a_2276_4772# VSS VSS nfet_05v0 ad=0.3608p pd=2.52u as=0.3608p ps=2.52u w=0.82u l=1u
X35 a_16812_4295# a_16724_4392# VSS VSS nfet_05v0 ad=0.3608p pd=2.52u as=0.3608p ps=2.52u w=0.82u l=1u
X36 a_18156_2727# a_18068_2824# VSS VSS nfet_05v0 ad=0.3608p pd=2.52u as=0.3608p ps=2.52u w=0.82u l=1u
X37 a_6732_13703# a_6644_13800# VSS VSS nfet_05v0 ad=0.3608p pd=2.52u as=0.3608p ps=2.52u w=0.82u l=1u
X38 VDD.t376 a_8076_7431# a_7988_7528# VDD.t375 pfet_05v0 ad=0.5368p pd=3.32u as=0.5368p ps=3.32u w=1.22u l=1u
X39 a_16740_16623# a_15940_16615# VSS VSS nfet_05v0 ad=43.2f pd=0.6u as=0.1584p ps=1.6u w=0.36u l=0.6u
X40 a_20620_16839# a_20532_16936# VSS VSS nfet_05v0 ad=0.3608p pd=2.52u as=0.3608p ps=2.52u w=0.82u l=1u
X41 VDD.t467 a_12780_15271# a_12692_15368# VDD.t466 pfet_05v0 ad=0.5368p pd=3.32u as=0.5368p ps=3.32u w=1.22u l=1u
X42 a_3708_13703# a_3620_13800# VSS VSS nfet_05v0 ad=0.3608p pd=2.52u as=0.3608p ps=2.52u w=0.82u l=1u
X43 a_20284_1592# a_20196_1636# VSS VSS nfet_05v0 ad=0.3608p pd=2.52u as=0.3608p ps=2.52u w=0.82u l=1u
X44 VSS a_14880_11875# a_14776_11919# VSS nfet_05v0 ad=0.2637p pd=1.825u as=93.59999f ps=0.88u w=0.36u l=0.6u
X45 a_18044_14136# a_17956_14180# VSS VSS nfet_05v0 ad=0.3608p pd=2.52u as=0.3608p ps=2.52u w=0.82u l=1u
X46 a_14336_15368# a_13924_15047# VSS VSS nfet_05v0 ad=0.1782p pd=1.69u as=0.1053p ps=0.925u w=0.405u l=0.6u
X47 a_18044_11000# a_17956_11044# VSS VSS nfet_05v0 ad=0.3608p pd=2.52u as=0.3608p ps=2.52u w=0.82u l=1u
X48 VDD.t1066 a_18604_12135# a_18516_12232# VDD.t1065 pfet_05v0 ad=0.5368p pd=3.32u as=0.5368p ps=3.32u w=1.22u l=1u
X49 a_4044_18407# a_3956_18504# VSS VSS nfet_05v0 ad=0.3608p pd=2.52u as=0.3608p ps=2.52u w=0.82u l=1u
X50 VDD.t1358 a_6844_15704# a_6756_15748# VDD.t1357 pfet_05v0 ad=0.5368p pd=3.32u as=0.5368p ps=3.32u w=1.22u l=1u
X51 VDD.t823 a_2364_14136# a_2276_14180# VDD.t822 pfet_05v0 ad=0.5368p pd=3.32u as=0.5368p ps=3.32u w=1.22u l=1u
X52 a_3708_1592# a_3620_1636# VSS VSS nfet_05v0 ad=0.3608p pd=2.52u as=0.3608p ps=2.52u w=0.82u l=1u
X53 VDD.t1980 a_21404_18407# a_21316_18504# VDD.t1979 pfet_05v0 ad=0.5368p pd=3.32u as=0.5368p ps=3.32u w=1.22u l=1u
X54 VDD.t1674 a_2364_11000# a_2276_11044# VDD.t557 pfet_05v0 ad=0.5368p pd=3.32u as=0.5368p ps=3.32u w=1.22u l=1u
X55 a_21628_3160# a_21540_3204# VSS VSS nfet_05v0 ad=0.3608p pd=2.52u as=0.3608p ps=2.52u w=0.82u l=1u
X56 VDD.t1737 a_2364_7864# a_2276_7908# VDD.t1736 pfet_05v0 ad=0.5368p pd=3.32u as=0.5368p ps=3.32u w=1.22u l=1u
X57 a_9420_4295# a_9332_4392# VSS VSS nfet_05v0 ad=0.3608p pd=2.52u as=0.3608p ps=2.52u w=0.82u l=1u
X58 VDD.t2018 a_19948_7431# a_19860_7528# VDD.t2017 pfet_05v0 ad=0.5368p pd=3.32u as=0.5368p ps=3.32u w=1.22u l=1u
X59 a_10876_18407# a_10788_18504# VSS VSS nfet_05v0 ad=0.3608p pd=2.52u as=0.3608p ps=2.52u w=0.82u l=1u
X60 VDD.t59 a_5500_6296# a_5412_6340# VDD.t58 pfet_05v0 ad=0.5368p pd=3.32u as=0.5368p ps=3.32u w=1.22u l=1u
X61 VDD.t2102 a_5500_3160# a_5412_3204# VDD.t2101 pfet_05v0 ad=0.5368p pd=3.32u as=0.5368p ps=3.32u w=1.22u l=1u
X62 a_16192_15011# a_15899_15423# VDD.t460 VDD.t459 pfet_05v0 ad=0.352p pd=2.48u as=0.23p ps=1.54u w=0.8u l=0.5u
X63 VDD.t1072 a_17280_16579# a_17252_16991# VDD.t1071 pfet_05v0 ad=0.1044p pd=0.94u as=43.2f ps=0.6u w=0.36u l=0.5u
X64 a_7292_17272# a_7204_17316# VSS VSS nfet_05v0 ad=0.3608p pd=2.52u as=0.3608p ps=2.52u w=0.82u l=1u
X65 a_8860_14136# a_8772_14180# VSS VSS nfet_05v0 ad=0.3608p pd=2.52u as=0.3608p ps=2.52u w=0.82u l=1u
X66 a_16364_7431# a_16276_7528# VSS VSS nfet_05v0 ad=0.3608p pd=2.52u as=0.3608p ps=2.52u w=0.82u l=1u
X67 a_22076_11000# a_21988_11044# VSS VSS nfet_05v0 ad=0.3608p pd=2.52u as=0.3608p ps=2.52u w=0.82u l=1u
X68 VDD.t1590 a_9980_11000# a_9892_11044# VDD.t1589 pfet_05v0 ad=0.5368p pd=3.32u as=0.5368p ps=3.32u w=1.22u l=1u
X69 VDD.t570 a_15356_17272# a_15268_17316# VDD.t569 pfet_05v0 ad=0.5368p pd=3.32u as=0.5368p ps=3.32u w=1.22u l=1u
X70 a_18160_16623# a_15940_16615# a_17915_16991# VSS nfet_05v0 ad=43.2f pd=0.6u as=93.59999f ps=0.88u w=0.36u l=0.6u
X71 a_6844_7864# a_6756_7908# VSS VSS nfet_05v0 ad=0.3608p pd=2.52u as=0.3608p ps=2.52u w=0.82u l=1u
X72 a_6844_4728# a_6756_4772# VSS VSS nfet_05v0 ad=0.3608p pd=2.52u as=0.3608p ps=2.52u w=0.82u l=1u
X73 a_7740_15704# a_7652_15748# VSS VSS nfet_05v0 ad=0.3608p pd=2.52u as=0.3608p ps=2.52u w=0.82u l=1u
X74 VDD.t1648 a_11748_12568# a_11144_12971# VDD.t1647 pfet_05v0 ad=0.23p pd=1.54u as=0.352p ps=2.48u w=0.8u l=0.5u
X75 a_12780_4295# a_12692_4392# VSS VSS nfet_05v0 ad=0.3608p pd=2.52u as=0.3608p ps=2.52u w=0.82u l=1u
X76 a_18492_14136# a_18404_14180# VSS VSS nfet_05v0 ad=0.3608p pd=2.52u as=0.3608p ps=2.52u w=0.82u l=1u
X77 a_18492_1592# a_18404_1636# VSS VSS nfet_05v0 ad=0.3608p pd=2.52u as=0.3608p ps=2.52u w=0.82u l=1u
X78 a_20848_13097# a_18628_13096# a_20603_12729# VSS nfet_05v0 ad=43.2f pd=0.6u as=93.59999f ps=0.88u w=0.36u l=0.6u
X79 a_16352_16936# a_15940_16615# VSS VSS nfet_05v0 ad=0.1782p pd=1.69u as=0.1053p ps=0.925u w=0.405u l=0.6u
X80 a_18492_11000# a_18404_11044# VSS VSS nfet_05v0 ad=0.3608p pd=2.52u as=0.3608p ps=2.52u w=0.82u l=1u
X81 a_15468_11000# a_15380_11044# VSS VSS nfet_05v0 ad=0.3608p pd=2.52u as=0.3608p ps=2.52u w=0.82u l=1u
X82 a_13340_3160# a_13252_3204# VSS VSS nfet_05v0 ad=0.3608p pd=2.52u as=0.3608p ps=2.52u w=0.82u l=1u
X83 VDD.t1978 a_21852_18407# a_21764_18504# VDD.t1977 pfet_05v0 ad=0.5368p pd=3.32u as=0.5368p ps=3.32u w=1.22u l=1u
X84 VSS a_8792_10261# dac_div_chain\[2\]_load_slew11.Z VSS nfet_05v0 ad=0.153p pd=1.195u as=0.2178p ps=1.87u w=0.495u l=0.6u
X85 a_19040_12683# a_18628_13096# VSS VSS nfet_05v0 ad=0.1782p pd=1.69u as=0.1053p ps=0.925u w=0.405u l=0.6u
X86 VDD.t1396 a_6844_7864# a_6756_7908# VDD.t1395 pfet_05v0 ad=0.5368p pd=3.32u as=0.5368p ps=3.32u w=1.22u l=1u
X87 a_15916_12568# a_15828_12612# VSS VSS nfet_05v0 ad=0.3608p pd=2.52u as=0.3608p ps=2.52u w=0.82u l=1u
X88 a_13120_16233# a_10900_16232# a_12875_15865# VSS nfet_05v0 ad=43.2f pd=0.6u as=93.59999f ps=0.88u w=0.36u l=0.6u
X89 a_12192_13053# dac_div_chain\[1\]_dff_notouch_.CLK VDD.t1588 VDD.t1587 pfet_05v0 ad=0.3806p pd=2.61u as=0.2249p ps=1.385u w=0.865u l=0.5u
X90 a_19836_3160# a_19748_3204# VSS VSS nfet_05v0 ad=0.3608p pd=2.52u as=0.3608p ps=2.52u w=0.82u l=1u
X91 a_20620_7431# a_20532_7528# VSS VSS nfet_05v0 ad=0.3608p pd=2.52u as=0.3608p ps=2.52u w=0.82u l=1u
X92 a_18380_15271# a_18292_15368# VSS VSS nfet_05v0 ad=0.3608p pd=2.52u as=0.3608p ps=2.52u w=0.82u l=1u
X93 a_15468_4295# a_15380_4392# VSS VSS nfet_05v0 ad=0.3608p pd=2.52u as=0.3608p ps=2.52u w=0.82u l=1u
X94 VDD.t871 a_14124_7431# a_14036_7528# VDD.t870 pfet_05v0 ad=0.5368p pd=3.32u as=0.5368p ps=3.32u w=1.22u l=1u
X95 VDD.t1178 a_13452_9432# a_13364_9476# VDD.t1177 pfet_05v0 ad=0.5368p pd=3.32u as=0.5368p ps=3.32u w=1.22u l=1u
X96 VDD.t1106 a_10204_17272# a_10116_17316# VDD.t1105 pfet_05v0 ad=0.5368p pd=3.32u as=0.5368p ps=3.32u w=1.22u l=1u
X97 VDD.t2015 a_11548_6296# a_11460_6340# VDD.t2014 pfet_05v0 ad=0.5368p pd=3.32u as=0.5368p ps=3.32u w=1.22u l=1u
X98 a_16028_3160# a_15940_3204# VSS VSS nfet_05v0 ad=0.3608p pd=2.52u as=0.3608p ps=2.52u w=0.82u l=1u
X99 VDD.t2021 a_11548_3160# a_11460_3204# VDD.t2020 pfet_05v0 ad=0.5368p pd=3.32u as=0.5368p ps=3.32u w=1.22u l=1u
X100 VDD.t168 a_21964_5863# a_21876_5960# VDD.t167 pfet_05v0 ad=0.5368p pd=3.32u as=0.5368p ps=3.32u w=1.22u l=1u
X101 a_5836_10567# a_5748_10664# VSS VSS nfet_05v0 ad=0.3608p pd=2.52u as=0.3608p ps=2.52u w=0.82u l=1u
X102 VDD.t710 a_21964_2727# a_21876_2824# VDD.t709 pfet_05v0 ad=0.5368p pd=3.32u as=0.5368p ps=3.32u w=1.22u l=1u
X103 a_18044_9432# a_17956_9476# VSS VSS nfet_05v0 ad=0.3608p pd=2.52u as=0.3608p ps=2.52u w=0.82u l=1u
X104 a_18044_6296# a_17956_6340# VSS VSS nfet_05v0 ad=0.3608p pd=2.52u as=0.3608p ps=2.52u w=0.82u l=1u
X105 VDD.t905 a_16700_9432# a_16612_9476# VDD.t904 pfet_05v0 ad=0.5368p pd=3.32u as=0.5368p ps=3.32u w=1.22u l=1u
X106 VDD.t1214 a_2364_16839# a_2276_16936# VDD.t1213 pfet_05v0 ad=0.5368p pd=3.32u as=0.5368p ps=3.32u w=1.22u l=1u
X107 a_1020_7864# a_932_7908# VSS VSS nfet_05v0 ad=0.3608p pd=2.52u as=0.3608p ps=2.52u w=0.82u l=1u
X108 VDD.t1402 a_5948_12568# a_5860_12612# VDD.t1401 pfet_05v0 ad=0.5368p pd=3.32u as=0.5368p ps=3.32u w=1.22u l=1u
X109 a_1020_4728# a_932_4772# VSS VSS nfet_05v0 ad=0.3608p pd=2.52u as=0.3608p ps=2.52u w=0.82u l=1u
X110 a_8076_4295# a_7988_4392# VSS VSS nfet_05v0 ad=0.3608p pd=2.52u as=0.3608p ps=2.52u w=0.82u l=1u
X111 a_19948_12135# a_19860_12232# VSS VSS nfet_05v0 ad=0.3608p pd=2.52u as=0.3608p ps=2.52u w=0.82u l=1u
X112 a_3708_17272# a_3620_17316# VSS VSS nfet_05v0 ad=0.3608p pd=2.52u as=0.3608p ps=2.52u w=0.82u l=1u
X113 VDD.t960 a_1020_10567# a_932_10664# VDD.t959 pfet_05v0 ad=0.5368p pd=3.32u as=0.5368p ps=3.32u w=1.22u l=1u
X114 VDD.t962 a_2812_15271# a_2724_15368# VDD.t961 pfet_05v0 ad=0.5368p pd=3.32u as=0.5368p ps=3.32u w=1.22u l=1u
X115 a_19768_13397# avo[1].t7 VDD.t1967 VDD.t1966 pfet_05v0 ad=0.462p pd=2.98u as=0.4015p ps=1.92u w=1.05u l=0.5u
X116 a_15468_10567# a_15380_10664# VSS VSS nfet_05v0 ad=0.3608p pd=2.52u as=0.3608p ps=2.52u w=0.82u l=1u
X117 VDD.t1090 a_4156_6296# a_4068_6340# VDD.t1089 pfet_05v0 ad=0.5368p pd=3.32u as=0.5368p ps=3.32u w=1.22u l=1u
X118 VDD.t505 a_4156_3160# a_4068_3204# VDD.t504 pfet_05v0 ad=0.5368p pd=3.32u as=0.5368p ps=3.32u w=1.22u l=1u
X119 VDD.t171 a_20732_4728# a_20644_4772# VDD.t170 pfet_05v0 ad=0.5368p pd=3.32u as=0.5368p ps=3.32u w=1.22u l=1u
X120 VSS a_20896_13053# ana_div_chain\[0\]_dff_notouch_.Q VSS nfet_05v0 ad=0.3608p pd=2.52u as=0.2132p ps=1.34u w=0.82u l=0.6u
X121 dac_div_chain\[3\]_inv_notouch_.I a_11264_13443# VDD.t926 VDD.t925 pfet_05v0 ad=0.3172p pd=1.74u as=0.5368p ps=3.32u w=1.22u l=0.5u
X122 VDD.t258 a_20732_1592# a_20644_1636# VDD.t257 pfet_05v0 ad=0.5368p pd=3.32u as=0.5368p ps=3.32u w=1.22u l=1u
X123 a_21068_2727# a_20980_2824# VSS VSS nfet_05v0 ad=0.3608p pd=2.52u as=0.3608p ps=2.52u w=0.82u l=1u
X124 VDD.t1785 a_1020_7864# a_932_7908# VDD.t936 pfet_05v0 ad=0.5368p pd=3.32u as=0.5368p ps=3.32u w=1.22u l=1u
X125 a_19948_4295# a_19860_4392# VSS VSS nfet_05v0 ad=0.3608p pd=2.52u as=0.3608p ps=2.52u w=0.82u l=1u
X126 VDD.t972 a_6396_17272# a_6308_17316# VDD.t971 pfet_05v0 ad=0.5368p pd=3.32u as=0.5368p ps=3.32u w=1.22u l=1u
X127 VDD.t101 a_18604_7431# a_18516_7528# VDD.t100 pfet_05v0 ad=0.5368p pd=3.32u as=0.5368p ps=3.32u w=1.22u l=1u
X128 VDD.t574 a_5052_14136# a_4964_14180# VDD.t573 pfet_05v0 ad=0.5368p pd=3.32u as=0.5368p ps=3.32u w=1.22u l=1u
X129 a_2364_12568# a_2276_12612# VSS VSS nfet_05v0 ad=0.3608p pd=2.52u as=0.3608p ps=2.52u w=0.82u l=1u
X130 a_4940_8999# a_4852_9096# VSS VSS nfet_05v0 ad=0.3608p pd=2.52u as=0.3608p ps=2.52u w=0.82u l=1u
X131 VDD.t2062 a_5052_11000# a_4964_11044# VDD.t2061 pfet_05v0 ad=0.5368p pd=3.32u as=0.5368p ps=3.32u w=1.22u l=1u
X132 VDD.t1952 a_17148_4728# a_17060_4772# VDD.t1951 pfet_05v0 ad=0.5368p pd=3.32u as=0.5368p ps=3.32u w=1.22u l=1u
X133 a_4940_5863# a_4852_5960# VSS VSS nfet_05v0 ad=0.3608p pd=2.52u as=0.3608p ps=2.52u w=0.82u l=1u
X134 a_15020_7431# a_14932_7528# VSS VSS nfet_05v0 ad=0.3608p pd=2.52u as=0.3608p ps=2.52u w=0.82u l=1u
X135 VDD.t1895 a_17148_1592# a_17060_1636# VDD.t1894 pfet_05v0 ad=0.5368p pd=3.32u as=0.5368p ps=3.32u w=1.22u l=1u
X136 VDD.t915 a_7292_9432# a_7204_9476# VDD.t914 pfet_05v0 ad=0.5368p pd=3.32u as=0.5368p ps=3.32u w=1.22u l=1u
X137 a_5500_7864# a_5412_7908# VSS VSS nfet_05v0 ad=0.3608p pd=2.52u as=0.3608p ps=2.52u w=0.82u l=1u
X138 a_20284_9432# a_20196_9476# VSS VSS nfet_05v0 ad=0.3608p pd=2.52u as=0.3608p ps=2.52u w=0.82u l=1u
X139 a_5500_4728# a_5412_4772# VSS VSS nfet_05v0 ad=0.3608p pd=2.52u as=0.3608p ps=2.52u w=0.82u l=1u
X140 a_20284_6296# a_20196_6340# VSS VSS nfet_05v0 ad=0.3608p pd=2.52u as=0.3608p ps=2.52u w=0.82u l=1u
X141 a_21516_10567# a_21428_10664# VSS VSS nfet_05v0 ad=0.3608p pd=2.52u as=0.3608p ps=2.52u w=0.82u l=1u
X142 a_10316_10567# a_10228_10664# VSS VSS nfet_05v0 ad=0.3608p pd=2.52u as=0.3608p ps=2.52u w=0.82u l=1u
X143 a_16908_16623# ana_div_chain\[4\]_inv_notouch_.ZN a_16740_16623# VSS nfet_05v0 ad=0.207p pd=1.51u as=43.2f ps=0.6u w=0.36u l=0.6u
X144 VDD.t1159 a_10788_17316# dvo[4].t4 VDD.t1158 pfet_05v0 ad=0.3782p pd=1.84u as=0.3782p ps=1.84u w=1.22u l=0.5u
X145 VDD.t1905 a_16364_5863# a_16276_5960# VDD.t1904 pfet_05v0 ad=0.5368p pd=3.32u as=0.5368p ps=3.32u w=1.22u l=1u
X146 ana_div_chain\[0\]_dff_notouch_.Q a_20896_13053# VDD.t952 VDD.t951 pfet_05v0 ad=0.3172p pd=1.74u as=0.5368p ps=3.32u w=1.22u l=0.5u
X147 VDD.t1809 a_16364_2727# a_16276_2824# VDD.t1808 pfet_05v0 ad=0.5368p pd=3.32u as=0.5368p ps=3.32u w=1.22u l=1u
X148 a_3708_9432# a_3620_9476# VSS VSS nfet_05v0 ad=0.3608p pd=2.52u as=0.3608p ps=2.52u w=0.82u l=1u
X149 a_9980_12568# a_9892_12612# VSS VSS nfet_05v0 ad=0.3608p pd=2.52u as=0.3608p ps=2.52u w=0.82u l=1u
X150 a_3708_6296# a_3620_6340# VSS VSS nfet_05v0 ad=0.3608p pd=2.52u as=0.3608p ps=2.52u w=0.82u l=1u
X151 a_7628_8999# a_7540_9096# VSS VSS nfet_05v0 ad=0.3608p pd=2.52u as=0.3608p ps=2.52u w=0.82u l=1u
X152 a_7628_5863# a_7540_5960# VSS VSS nfet_05v0 ad=0.3608p pd=2.52u as=0.3608p ps=2.52u w=0.82u l=1u
X153 VDD.t1468 a_2364_15704# a_2276_15748# VDD.t963 pfet_05v0 ad=0.5368p pd=3.32u as=0.5368p ps=3.32u w=1.22u l=1u
X154 a_20844_15704# a_20756_15748# VSS VSS nfet_05v0 ad=0.3608p pd=2.52u as=0.3608p ps=2.52u w=0.82u l=1u
X155 a_12038_17744# dac_div_chain\[4\]_dff_notouch_.Q VSS VSS nfet_05v0 ad=0.3608p pd=2.52u as=0.2911p ps=1.53u w=0.82u l=0.6u
X156 VDD.t136 a_5836_4295# a_5748_4392# VDD.t135 pfet_05v0 ad=0.5368p pd=3.32u as=0.5368p ps=3.32u w=1.22u l=1u
X157 VDD.t1528 a_2812_8999# a_2724_9096# VDD.t1322 pfet_05v0 ad=0.5368p pd=3.32u as=0.5368p ps=3.32u w=1.22u l=1u
X158 a_15748_12287# ana_div_chain\[1\]_inv_notouch_.ZN a_14880_11875# VDD.t846 pfet_05v0 ad=54f pd=0.66u as=0.1872p ps=1.4u w=0.36u l=0.5u
X159 a_21829_1428# a_21709_808# a_21085_808# VDD.t714 pfet_05v0 ad=61.19999f pd=0.7u as=0.3852p ps=2.86u w=0.36u l=0.5u
X160 VDD.t1130 a_18940_4728# a_18852_4772# VDD.t1129 pfet_05v0 ad=0.5368p pd=3.32u as=0.5368p ps=3.32u w=1.22u l=1u
X161 VDD.t1267 a_18940_1592# a_18852_1636# VDD.t1266 pfet_05v0 ad=0.5368p pd=3.32u as=0.5368p ps=3.32u w=1.22u l=1u
X162 VDD.t1476 a_21628_9432# a_21540_9476# VDD.t1475 pfet_05v0 ad=0.5368p pd=3.32u as=0.5368p ps=3.32u w=1.22u l=1u
X163 VDD.t642 a_5500_7864# a_5412_7908# VDD.t641 pfet_05v0 ad=0.5368p pd=3.32u as=0.5368p ps=3.32u w=1.22u l=1u
X164 ana_div_chain\[2\]_inv_notouch_.I a_10340_11575# VDD.t1021 VDD.t1020 pfet_05v0 ad=0.5368p pd=3.32u as=0.4015p ps=1.92u w=1.22u l=0.5u
X165 a_14124_4295# a_14036_4392# VSS VSS nfet_05v0 ad=0.3608p pd=2.52u as=0.3608p ps=2.52u w=0.82u l=1u
X166 a_11868_16233# dac_div_chain\[4\]_dff_notouch_.D a_11700_16233# VSS nfet_05v0 ad=0.207p pd=1.51u as=43.2f ps=0.6u w=0.36u l=0.6u
X167 VDD.t1459 a_1468_13703# a_1380_13800# VDD.t1458 pfet_05v0 ad=0.5368p pd=3.32u as=0.5368p ps=3.32u w=1.22u l=1u
X168 VDD.t1903 a_15132_4728# a_15044_4772# VDD.t1902 pfet_05v0 ad=0.5368p pd=3.32u as=0.5368p ps=3.32u w=1.22u l=1u
X169 VDD.t1602 a_18208_16579# a_18200_16991# VDD.t1601 pfet_05v0 ad=0.23p pd=1.54u as=50.4f ps=0.64u w=0.36u l=0.5u
X170 VDD.t893 a_15132_1592# a_15044_1636# VDD.t253 pfet_05v0 ad=0.5368p pd=3.32u as=0.5368p ps=3.32u w=1.22u l=1u
X171 a_2364_8999# a_2276_9096# VSS VSS nfet_05v0 ad=0.3608p pd=2.52u as=0.3608p ps=2.52u w=0.82u l=1u
X172 a_17565_808# dac_vco_in.t1 VDD.t803 VDD.t802 pfet_05v0 ad=0.3852p pd=2.86u as=0.1116p ps=0.98u w=0.36u l=0.5u
X173 a_2364_5863# a_2276_5960# VSS VSS nfet_05v0 ad=0.3608p pd=2.52u as=0.3608p ps=2.52u w=0.82u l=1u
X174 VDD.t1771 a_10204_6296# a_10116_6340# VDD.t1770 pfet_05v0 ad=0.5368p pd=3.32u as=0.5368p ps=3.32u w=1.22u l=1u
X175 VDD.t1438 a_7628_15271# a_7540_15368# VDD.t1437 pfet_05v0 ad=0.5368p pd=3.32u as=0.5368p ps=3.32u w=1.22u l=1u
X176 a_9739_12287# a_8176_12232# a_9104_11875# VSS nfet_05v0 ad=93.59999f pd=0.88u as=93.59999f ps=0.88u w=0.36u l=0.6u
X177 VDD.t1328 a_22076_17272# a_21988_17316# VDD.t1327 pfet_05v0 ad=0.5368p pd=3.32u as=0.5368p ps=3.32u w=1.22u l=1u
X178 VDD.t515 a_10204_3160# a_10116_3204# VDD.t514 pfet_05v0 ad=0.5368p pd=3.32u as=0.5368p ps=3.32u w=1.22u l=1u
X179 VDD.t410 a_13340_18407# a_13252_18504# VDD.t409 pfet_05v0 ad=0.5368p pd=3.32u as=0.5368p ps=3.32u w=1.22u l=1u
X180 VDD.t146 a_20620_5863# a_20532_5960# VDD.t145 pfet_05v0 ad=0.5368p pd=3.32u as=0.5368p ps=3.32u w=1.22u l=1u
X181 a_19500_7431# a_19412_7528# VSS VSS nfet_05v0 ad=0.3608p pd=2.52u as=0.3608p ps=2.52u w=0.82u l=1u
X182 VDD.t660 a_4940_12135# a_4852_12232# VDD.t659 pfet_05v0 ad=0.5368p pd=3.32u as=0.5368p ps=3.32u w=1.22u l=1u
X183 VDD.t1336 a_8860_17272# a_8772_17316# VDD.t1335 pfet_05v0 ad=0.5368p pd=3.32u as=0.5368p ps=3.32u w=1.22u l=1u
X184 VDD.t1769 a_14572_7431# a_14484_7528# VDD.t1768 pfet_05v0 ad=0.5368p pd=3.32u as=0.5368p ps=3.32u w=1.22u l=1u
X185 VDD.t1798 a_20620_2727# a_20532_2824# VDD.t1797 pfet_05v0 ad=0.5368p pd=3.32u as=0.5368p ps=3.32u w=1.22u l=1u
X186 VDD.t1208 a_1916_12135# a_1828_12232# VDD.t1207 pfet_05v0 ad=0.5368p pd=3.32u as=0.5368p ps=3.32u w=1.22u l=1u
X187 VDD.t2013 a_11996_6296# a_11908_6340# VDD.t2012 pfet_05v0 ad=0.5368p pd=3.32u as=0.5368p ps=3.32u w=1.22u l=1u
X188 a_3260_15704# a_3172_15748# VSS VSS nfet_05v0 ad=0.3608p pd=2.52u as=0.3608p ps=2.52u w=0.82u l=1u
X189 VDD.t2028 a_11996_3160# a_11908_3204# VDD.t2027 pfet_05v0 ad=0.5368p pd=3.32u as=0.5368p ps=3.32u w=1.22u l=1u
X190 a_9868_16839# a_9780_16936# VSS VSS nfet_05v0 ad=0.3608p pd=2.52u as=0.3608p ps=2.52u w=0.82u l=1u
X191 a_21964_10567# a_21876_10664# VSS VSS nfet_05v0 ad=0.3608p pd=2.52u as=0.3608p ps=2.52u w=0.82u l=1u
X192 VDD.t1684 a_19052_8999# a_18964_9096# VDD.t1683 pfet_05v0 ad=0.5368p pd=3.32u as=0.5368p ps=3.32u w=1.22u l=1u
X193 a_10764_10567# a_10676_10664# VSS VSS nfet_05v0 ad=0.3608p pd=2.52u as=0.3608p ps=2.52u w=0.82u l=1u
X194 a_17232_16623# a_16352_16936# a_16908_16623# VSS nfet_05v0 ad=43.2f pd=0.6u as=0.207p ps=1.51u w=0.36u l=0.6u
X195 a_11548_7864# a_11460_7908# VSS VSS nfet_05v0 ad=0.3608p pd=2.52u as=0.3608p ps=2.52u w=0.82u l=1u
X196 a_18492_9432# a_18404_9476# VSS VSS nfet_05v0 ad=0.3608p pd=2.52u as=0.3608p ps=2.52u w=0.82u l=1u
X197 a_11548_4728# a_11460_4772# VSS VSS nfet_05v0 ad=0.3608p pd=2.52u as=0.3608p ps=2.52u w=0.82u l=1u
X198 a_18492_6296# a_18404_6340# VSS VSS nfet_05v0 ad=0.3608p pd=2.52u as=0.3608p ps=2.52u w=0.82u l=1u
X199 a_3708_2727# a_3620_2824# VSS VSS nfet_05v0 ad=0.3608p pd=2.52u as=0.3608p ps=2.52u w=0.82u l=1u
X200 VSS wire12.I a_8996_13479# VSS nfet_05v0 ad=0.1053p pd=0.925u as=0.1782p ps=1.69u w=0.405u l=0.6u
X201 a_21205_1406# a_21085_808# VDD.t251 VDD.t250 pfet_05v0 ad=61.19999f pd=0.7u as=0.379p ps=2.37u w=0.36u l=0.5u
X202 a_8564_11919# a_7764_11911# VSS VSS nfet_05v0 ad=43.2f pd=0.6u as=0.1584p ps=1.6u w=0.36u l=0.6u
X203 a_19596_13097# ana_div_chain\[0\]_dff_notouch_.D a_19472_12729# VDD.t948 pfet_05v0 ad=0.1872p pd=1.4u as=54f ps=0.66u w=0.36u l=0.5u
X204 a_5948_14136# a_5860_14180# VSS VSS nfet_05v0 ad=0.3608p pd=2.52u as=0.3608p ps=2.52u w=0.82u l=1u
X205 a_17260_2727# a_17172_2824# VSS VSS nfet_05v0 ad=0.3608p pd=2.52u as=0.3608p ps=2.52u w=0.82u l=1u
X206 a_10876_1159# a_10788_1256# VSS VSS nfet_05v0 ad=0.3608p pd=2.52u as=0.3608p ps=2.52u w=0.82u l=1u
X207 a_5948_11000# a_5860_11044# VSS VSS nfet_05v0 ad=0.3608p pd=2.52u as=0.3608p ps=2.52u w=0.82u l=1u
X208 VDD.t1624 a_18604_15704# a_18516_15748# VDD.t1623 pfet_05v0 ad=0.5368p pd=3.32u as=0.5368p ps=3.32u w=1.22u l=1u
X209 VDD.t55 a_7180_7431# a_7092_7528# VDD.t54 pfet_05v0 ad=0.5368p pd=3.32u as=0.5368p ps=3.32u w=1.22u l=1u
X210 VSS a_13168_16189# a_13120_16233# VSS nfet_05v0 ad=0.142p pd=1.14u as=43.2f ps=0.6u w=0.36u l=0.6u
X211 VSS a_11256_16533# dac_div_chain\[4\]_dff_notouch_.CLK VSS nfet_05v0 ad=0.153p pd=1.195u as=0.2178p ps=1.87u w=0.495u l=0.6u
X212 VDD.t1745 a_9308_6296# a_9220_6340# VDD.t1744 pfet_05v0 ad=0.5368p pd=3.32u as=0.5368p ps=3.32u w=1.22u l=1u
X213 VDD.t1190 a_9308_3160# a_9220_3204# VDD.t1189 pfet_05v0 ad=0.5368p pd=3.32u as=0.5368p ps=3.32u w=1.22u l=1u
X214 VDD.t540 a_19836_9432# a_19748_9476# VDD.t539 pfet_05v0 ad=0.5368p pd=3.32u as=0.5368p ps=3.32u w=1.22u l=1u
X215 a_12212_15865# a_10900_16232# a_11868_16233# VDD.t1053 pfet_05v0 ad=43.2f pd=0.6u as=0.1872p ps=1.4u w=0.36u l=0.5u
X216 a_4156_7864# a_4068_7908# VSS VSS nfet_05v0 ad=0.3608p pd=2.52u as=0.3608p ps=2.52u w=0.82u l=1u
X217 VDD.t2024 a_11548_7864# a_11460_7908# VDD.t2023 pfet_05v0 ad=0.5368p pd=3.32u as=0.5368p ps=3.32u w=1.22u l=1u
X218 a_18156_10567# a_18068_10664# VSS VSS nfet_05v0 ad=0.3608p pd=2.52u as=0.3608p ps=2.52u w=0.82u l=1u
X219 a_18604_4295# a_18516_4392# VSS VSS nfet_05v0 ad=0.3608p pd=2.52u as=0.3608p ps=2.52u w=0.82u l=1u
X220 a_2812_1592# a_2724_1636# VSS VSS nfet_05v0 ad=0.3608p pd=2.52u as=0.3608p ps=2.52u w=0.82u l=1u
X221 a_4156_4728# a_4068_4772# VSS VSS nfet_05v0 ad=0.3608p pd=2.52u as=0.3608p ps=2.52u w=0.82u l=1u
X222 a_8608_12287# a_8176_12232# VDD.t1534 VDD.t1533 pfet_05v0 ad=54f pd=0.66u as=0.4554p ps=3.25u w=0.36u l=0.5u
X223 a_5836_15271# a_5748_15368# VSS VSS nfet_05v0 ad=0.3608p pd=2.52u as=0.3608p ps=2.52u w=0.82u l=1u
X224 a_5836_12135# a_5748_12232# VSS VSS nfet_05v0 ad=0.3608p pd=2.52u as=0.3608p ps=2.52u w=0.82u l=1u
X225 a_20732_3160# a_20644_3204# VSS VSS nfet_05v0 ad=0.3608p pd=2.52u as=0.3608p ps=2.52u w=0.82u l=1u
X226 VDD.t1663 a_6284_10567# a_6196_10664# VDD.t1662 pfet_05v0 ad=0.5368p pd=3.32u as=0.5368p ps=3.32u w=1.22u l=1u
X227 a_22076_1592# a_21988_1636# VSS VSS nfet_05v0 ad=0.3608p pd=2.52u as=0.3608p ps=2.52u w=0.82u l=1u
X228 a_1916_7431# a_1828_7528# VSS VSS nfet_05v0 ad=0.3608p pd=2.52u as=0.3608p ps=2.52u w=0.82u l=1u
X229 VDD.t1574 a_14460_15704# a_14372_15748# VDD.t1573 pfet_05v0 ad=0.5368p pd=3.32u as=0.5368p ps=3.32u w=1.22u l=1u
X230 VDD.t1551 a_1468_12568# a_1380_12612# VDD.t1209 pfet_05v0 ad=0.5368p pd=3.32u as=0.5368p ps=3.32u w=1.22u l=1u
X231 VDD.t985 a_21516_7431# a_21428_7528# VDD.t984 pfet_05v0 ad=0.5368p pd=3.32u as=0.5368p ps=3.32u w=1.22u l=1u
X232 VDD.t1855 a_21180_11000# a_21092_11044# VDD.t1854 pfet_05v0 ad=0.5368p pd=3.32u as=0.5368p ps=3.32u w=1.22u l=1u
X233 a_14684_1159# a_14596_1256# VSS VSS nfet_05v0 ad=0.3608p pd=2.52u as=0.3608p ps=2.52u w=0.82u l=1u
X234 VDD.t999 a_20620_12135# a_20532_12232# VDD.t998 pfet_05v0 ad=0.5368p pd=3.32u as=0.5368p ps=3.32u w=1.22u l=1u
X235 VSS a_17752_18101# ana_div_chain\[4\]_inv_notouch_.I VSS nfet_05v0 ad=0.153p pd=1.195u as=0.2178p ps=1.87u w=0.495u l=0.6u
X236 VDD.t469 a_12108_15271# a_12020_15368# VDD.t468 pfet_05v0 ad=0.5368p pd=3.32u as=0.5368p ps=3.32u w=1.22u l=1u
X237 VDD.t1723 a_17596_4728# a_17508_4772# VDD.t1722 pfet_05v0 ad=0.5368p pd=3.32u as=0.5368p ps=3.32u w=1.22u l=1u
X238 VDD.t1166 a_1468_8999# a_1380_9096# VDD.t810 pfet_05v0 ad=0.5368p pd=3.32u as=0.5368p ps=3.32u w=1.22u l=1u
X239 VDD.t1519 a_3139_18100# uio_oe[5].t0 VDD.t1518 pfet_05v0 ad=0.5368p pd=3.32u as=0.5368p ps=3.32u w=1.22u l=0.5u
X240 a_19500_15704# a_19412_15748# VSS VSS nfet_05v0 ad=0.3608p pd=2.52u as=0.3608p ps=2.52u w=0.82u l=1u
X241 VDD.t825 a_1916_14136# a_1828_14180# VDD.t824 pfet_05v0 ad=0.5368p pd=3.32u as=0.5368p ps=3.32u w=1.22u l=1u
X242 VDD.t273 a_17596_1592# a_17508_1636# VDD.t272 pfet_05v0 ad=0.5368p pd=3.32u as=0.5368p ps=3.32u w=1.22u l=1u
X243 a_5052_12568# a_4964_12612# VSS VSS nfet_05v0 ad=0.3608p pd=2.52u as=0.3608p ps=2.52u w=0.82u l=1u
X244 VDD.t1897 a_15020_5863# a_14932_5960# VDD.t1896 pfet_05v0 ad=0.5368p pd=3.32u as=0.5368p ps=3.32u w=1.22u l=1u
X245 VDD.t634 a_4156_7864# a_4068_7908# VDD.t309 pfet_05v0 ad=0.5368p pd=3.32u as=0.5368p ps=3.32u w=1.22u l=1u
X246 VDD.t1675 a_1916_11000# a_1828_11044# VDD.t559 pfet_05v0 ad=0.5368p pd=3.32u as=0.5368p ps=3.32u w=1.22u l=1u
X247 VDD.t69 a_15020_2727# a_14932_2824# VDD.t68 pfet_05v0 ad=0.5368p pd=3.32u as=0.5368p ps=3.32u w=1.22u l=1u
X248 a_12324_11161# a_11012_11528# a_11980_11529# VDD.t1016 pfet_05v0 ad=43.2f pd=0.6u as=0.1872p ps=1.4u w=0.36u l=0.5u
X249 avo[4].t0 a_16612_17316# VSS VSS nfet_05v0 ad=0.2132p pd=1.34u as=0.2911p ps=1.53u w=0.82u l=0.6u
X250 a_15292_12287# a_14776_11919# VDD.t1134 VDD.t1133 pfet_05v0 ad=43.2f pd=0.6u as=0.1044p ps=0.94u w=0.36u l=0.5u
X251 a_17148_3160# a_17060_3204# VSS VSS nfet_05v0 ad=0.3608p pd=2.52u as=0.3608p ps=2.52u w=0.82u l=1u
X252 VDD.t1568 a_19768_13397# ana_div_chain\[1\]_dff_notouch_.CLK VDD.t1567 pfet_05v0 ad=0.4015p pd=1.92u as=0.5368p ps=3.32u w=1.22u l=0.5u
X253 a_16252_18407# a_16164_18504# VSS VSS nfet_05v0 ad=0.3608p pd=2.52u as=0.3608p ps=2.52u w=0.82u l=1u
X254 VDD.t222 a_19724_15271# a_19636_15368# VDD.t221 pfet_05v0 ad=0.5368p pd=3.32u as=0.5368p ps=3.32u w=1.22u l=1u
X255 a_18156_7431# a_18068_7528# VSS VSS nfet_05v0 ad=0.3608p pd=2.52u as=0.3608p ps=2.52u w=0.82u l=1u
X256 a_1468_1159# a_1380_1256# VSS VSS nfet_05v0 ad=0.3608p pd=2.52u as=0.3608p ps=2.52u w=0.82u l=1u
X257 a_6844_17272# a_6756_17316# VSS VSS nfet_05v0 ad=0.3608p pd=2.52u as=0.3608p ps=2.52u w=0.82u l=1u
X258 a_21628_11000# a_21540_11044# VSS VSS nfet_05v0 ad=0.3608p pd=2.52u as=0.3608p ps=2.52u w=0.82u l=1u
X259 VDD.t1452 a_14908_17272# a_14820_17316# VDD.t1451 pfet_05v0 ad=0.5368p pd=3.32u as=0.5368p ps=3.32u w=1.22u l=1u
X260 VDD.t1078 a_5052_15704# a_4964_15748# VDD.t1077 pfet_05v0 ad=0.5368p pd=3.32u as=0.5368p ps=3.32u w=1.22u l=1u
X261 VDD.t481 a_9308_14136# a_9220_14180# VDD.t480 pfet_05v0 ad=0.5368p pd=3.32u as=0.5368p ps=3.32u w=1.22u l=1u
X262 VSS a_14432_11875# a_15804_11919# VSS nfet_05v0 ad=0.1584p pd=1.6u as=43.2f ps=0.6u w=0.36u l=0.6u
X263 a_1020_8999# a_932_9096# VSS VSS nfet_05v0 ad=0.3608p pd=2.52u as=0.3608p ps=2.52u w=0.82u l=1u
X264 a_1020_5863# a_932_5960# VSS VSS nfet_05v0 ad=0.3608p pd=2.52u as=0.3608p ps=2.52u w=0.82u l=1u
X265 a_18940_3160# a_18852_3204# VSS VSS nfet_05v0 ad=0.3608p pd=2.52u as=0.3608p ps=2.52u w=0.82u l=1u
X266 a_21516_15271# a_21428_15368# VSS VSS nfet_05v0 ad=0.3608p pd=2.52u as=0.3608p ps=2.52u w=0.82u l=1u
X267 a_14572_4295# a_14484_4392# VSS VSS nfet_05v0 ad=0.3608p pd=2.52u as=0.3608p ps=2.52u w=0.82u l=1u