* NGSPICE file created from tt_um_algofoogle_gf_analog.ext - technology: gf180mcuD

.subckt bufinv_2 A Y VSS VCC
X0 Y A VCC VCC pfet_03v3 ad=2.08p pd=9.04u as=2p ps=9u w=4u l=0.28u
**devattr s=160000,2000 d=83200,1808
X1 Y A VSS VSS nfet_03v3 ad=1.04p pd=5.04u as=1p ps=5u w=2u l=0.28u
**devattr s=74000,1200 d=41600,1008
.ends

.subckt csrostage VCC VbiasP VSS VbiasN A Y
X0 a_280_590# VbiasP VCC VCC pfet_03v3 ad=0.59348p pd=4.36957u as=1.5p ps=7u w=3u l=0.3u
**devattr s=132000,1640 d=18200,670
X1 Y A a_280_250# VSS nfet_03v3 ad=0.4p pd=2.6u as=0.14857p ps=1.31429u w=0.8u l=0.4u
**devattr s=5200,230 d=16000,520
X2 a_280_250# VbiasN VSS VSS nfet_03v3 ad=0.11143p pd=0.98571u as=0.3p ps=2.2u w=0.6u l=0.3u
**devattr s=26400,680 d=5200,230
X3 Y A a_280_590# VCC pfet_03v3 ad=0.8p pd=4.2u as=0.31652p ps=2.33043u w=1.6u l=0.4u
**devattr s=18200,670 d=32000,840
.ends

.subckt bufinv A Y VSS VCC
X0 Y A VCC VCC pfet_03v3 ad=1.04p pd=5.04u as=1p ps=5u w=2u l=0.28u
**devattr s=80000,1200 d=41600,1008
X1 Y A VSS VSS nfet_03v3 ad=0.52p pd=3.04u as=0.5p ps=3u w=1u l=0.28u
**devattr s=34000,800 d=20800,608
.ends

.subckt nfet_03v3_KT5AJW a_n52_n500# a_296_n592# a_680_n500# a_52_n592# a_n540_n500#
+ a_n436_n592# a_540_n592# a_n192_n592# a_n906_n686# a_436_n500# a_192_n500# a_n768_n500#
+ a_n680_n592# a_n296_n500#
X0 a_436_n500# a_296_n592# a_192_n500# a_n906_n686# nfet_03v3 ad=1.3p pd=5.52u as=1.3p ps=5.52u w=5u l=0.7u
**devattr s=52000,1104 d=52000,1104
X1 a_680_n500# a_540_n592# a_436_n500# a_n906_n686# nfet_03v3 ad=2.2p pd=10.88u as=1.3p ps=5.52u w=5u l=0.7u
**devattr s=52000,1104 d=88000,2176
X2 a_192_n500# a_52_n592# a_n52_n500# a_n906_n686# nfet_03v3 ad=1.3p pd=5.52u as=1.3p ps=5.52u w=5u l=0.7u
**devattr s=52000,1104 d=52000,1104
X3 a_n52_n500# a_n192_n592# a_n296_n500# a_n906_n686# nfet_03v3 ad=1.3p pd=5.52u as=1.3p ps=5.52u w=5u l=0.7u
**devattr s=52000,1104 d=52000,1104
X4 a_n296_n500# a_n436_n592# a_n540_n500# a_n906_n686# nfet_03v3 ad=1.3p pd=5.52u as=1.3p ps=5.52u w=5u l=0.7u
**devattr s=52000,1104 d=52000,1104
X5 a_n540_n500# a_n680_n592# a_n768_n500# a_n906_n686# nfet_03v3 ad=1.3p pd=5.52u as=2.2p ps=10.88u w=5u l=0.7u
**devattr s=88000,2176 d=52000,1104
.ends

.subckt ppolyf_u_1k_ACAPAA a_40_n622# a_40_500# a_n240_n622# a_n240_500# a_n452_n834#
X0 a_40_500# a_40_n622# a_n452_n834# ppolyf_u_1k r_width=1u r_length=5u
X1 a_n240_500# a_n240_n622# a_n452_n834# ppolyf_u_1k r_width=1u r_length=5u
.ends

.subckt csringosc vin VCC VSS vbiasp vbiasn osc_raw osc_out
Xx1 VCC vbiasp VSS vbiasn osc_raw x2/A csrostage
Xx2 VCC vbiasp VSS vbiasn x2/A x3/A csrostage
Xx3 VCC vbiasp VSS vbiasn x3/A x4/A csrostage
Xx4 VCC vbiasp VSS vbiasn x4/A x5/A csrostage
Xx5 VCC vbiasp VSS vbiasn x5/A osc_raw csrostage
Xx6 osc_raw x7/A VSS VCC bufinv
Xx7 x7/A osc_out VSS VCC bufinv
XXMNc vbiasp vin m1_n2680_1360# vin vbiasp vin vin vin VSS vbiasp m1_n2680_1360# m1_n2680_1360#
+ vin m1_n2680_1360# nfet_03v3_KT5AJW
XXR1a2 m1_n2960_160# m1_n2680_1360# m1_n2960_160# VSS VSS ppolyf_u_1k_ACAPAA
X0 VSS vbiasn vbiasn VSS nfet_03v3 ad=0.3p pd=2.2u as=0.3p ps=2.2u w=0.6u l=0.3u
**devattr s=12000,440 d=12000,440
X1 vbiasn vbiasp VCC VCC pfet_03v3 ad=1.5p pd=7u as=1.02p ps=3.96u w=3u l=0.3u
**devattr s=47600,924 d=60000,1400
X2 VCC vbiasp vbiasp VCC pfet_03v3 ad=1.36p pd=5.28u as=2p ps=9u w=4u l=0.28u
**devattr s=80000,1800 d=47600,924
.ends

.subckt gf180mcu_fd_sc_mcu7t5v0__fillcap_64 VDD VNW VPW VSS
X0 a_4604_375# a_4516_472# VSS VPW nfet_05v0 ad=0.3608p pd=2.52u as=0.3608p ps=2.52u w=0.82u l=1u
**devattr s=14432,504 d=14432,504
X1 VDD a_572_375# a_484_472# VNW pfet_05v0 ad=0.5368p pd=3.32u as=0.5368p ps=3.32u w=1.22u l=1u
**devattr s=21472,664 d=21472,664
X2 VDD a_2364_375# a_2276_472# VNW pfet_05v0 ad=0.5368p pd=3.32u as=0.5368p ps=3.32u w=1.22u l=1u
**devattr s=21472,664 d=21472,664
X3 a_4156_375# a_4068_472# VSS VPW nfet_05v0 ad=0.3608p pd=2.52u as=0.3608p ps=2.52u w=0.82u l=1u
**devattr s=14432,504 d=14432,504
X4 a_5500_375# a_5412_472# VSS VPW nfet_05v0 ad=0.3608p pd=2.52u as=0.3608p ps=2.52u w=0.82u l=1u
**devattr s=14432,504 d=14432,504
X5 a_572_375# a_484_472# VSS VPW nfet_05v0 ad=0.3608p pd=2.52u as=0.3608p ps=2.52u w=0.82u l=1u
**devattr s=14432,504 d=14432,504
X6 VDD a_5052_375# a_4964_472# VNW pfet_05v0 ad=0.5368p pd=3.32u as=0.5368p ps=3.32u w=1.22u l=1u
**devattr s=21472,664 d=21472,664
X7 VDD a_6844_375# a_6756_472# VNW pfet_05v0 ad=0.5368p pd=3.32u as=0.5368p ps=3.32u w=1.22u l=1u
**devattr s=21472,664 d=21472,664
X8 VDD a_1916_375# a_1828_472# VNW pfet_05v0 ad=0.5368p pd=3.32u as=0.5368p ps=3.32u w=1.22u l=1u
**devattr s=21472,664 d=21472,664
X9 a_124_375# a_36_472# VSS VPW nfet_05v0 ad=0.3608p pd=2.52u as=0.3608p ps=2.52u w=0.82u l=1u
**devattr s=14432,504 d=14432,504
X10 a_5052_375# a_4964_472# VSS VPW nfet_05v0 ad=0.3608p pd=2.52u as=0.3608p ps=2.52u w=0.82u l=1u
**devattr s=14432,504 d=14432,504
X11 a_1916_375# a_1828_472# VSS VPW nfet_05v0 ad=0.3608p pd=2.52u as=0.3608p ps=2.52u w=0.82u l=1u
**devattr s=14432,504 d=14432,504
X12 VDD a_4604_375# a_4516_472# VNW pfet_05v0 ad=0.5368p pd=3.32u as=0.5368p ps=3.32u w=1.22u l=1u
**devattr s=21472,664 d=21472,664
X13 a_1468_375# a_1380_472# VSS VPW nfet_05v0 ad=0.3608p pd=2.52u as=0.3608p ps=2.52u w=0.82u l=1u
**devattr s=14432,504 d=14432,504
X14 a_2812_375# a_2724_472# VSS VPW nfet_05v0 ad=0.3608p pd=2.52u as=0.3608p ps=2.52u w=0.82u l=1u
**devattr s=14432,504 d=14432,504
X15 VDD a_3260_375# a_3172_472# VNW pfet_05v0 ad=0.5368p pd=3.32u as=0.5368p ps=3.32u w=1.22u l=1u
**devattr s=21472,664 d=21472,664
X16 a_2364_375# a_2276_472# VSS VPW nfet_05v0 ad=0.3608p pd=2.52u as=0.3608p ps=2.52u w=0.82u l=1u
**devattr s=14432,504 d=14432,504
X17 a_5948_375# a_5860_472# VSS VPW nfet_05v0 ad=0.3608p pd=2.52u as=0.3608p ps=2.52u w=0.82u l=1u
**devattr s=14432,504 d=14432,504
X18 VDD a_2812_375# a_2724_472# VNW pfet_05v0 ad=0.5368p pd=3.32u as=0.5368p ps=3.32u w=1.22u l=1u
**devattr s=21472,664 d=21472,664
X19 a_3260_375# a_3172_472# VSS VPW nfet_05v0 ad=0.3608p pd=2.52u as=0.3608p ps=2.52u w=0.82u l=1u
**devattr s=14432,504 d=14432,504
X20 VDD a_1020_375# a_932_472# VNW pfet_05v0 ad=0.5368p pd=3.32u as=0.5368p ps=3.32u w=1.22u l=1u
**devattr s=21472,664 d=21472,664
X21 VDD a_5500_375# a_5412_472# VNW pfet_05v0 ad=0.5368p pd=3.32u as=0.5368p ps=3.32u w=1.22u l=1u
**devattr s=21472,664 d=21472,664
X22 a_6844_375# a_6756_472# VSS VPW nfet_05v0 ad=0.3608p pd=2.52u as=0.3608p ps=2.52u w=0.82u l=1u
**devattr s=14432,504 d=14432,504
X23 a_6396_375# a_6308_472# VSS VPW nfet_05v0 ad=0.3608p pd=2.52u as=0.3608p ps=2.52u w=0.82u l=1u
**devattr s=14432,504 d=14432,504
X24 VDD a_6396_375# a_6308_472# VNW pfet_05v0 ad=0.5368p pd=3.32u as=0.5368p ps=3.32u w=1.22u l=1u
**devattr s=21472,664 d=21472,664
X25 VDD a_1468_375# a_1380_472# VNW pfet_05v0 ad=0.5368p pd=3.32u as=0.5368p ps=3.32u w=1.22u l=1u
**devattr s=21472,664 d=21472,664
X26 VDD a_4156_375# a_4068_472# VNW pfet_05v0 ad=0.5368p pd=3.32u as=0.5368p ps=3.32u w=1.22u l=1u
**devattr s=21472,664 d=21472,664
X27 VDD a_5948_375# a_5860_472# VNW pfet_05v0 ad=0.5368p pd=3.32u as=0.5368p ps=3.32u w=1.22u l=1u
**devattr s=21472,664 d=21472,664
X28 VDD a_124_375# a_36_472# VNW pfet_05v0 ad=0.5368p pd=3.32u as=0.5368p ps=3.32u w=1.22u l=1u
**devattr s=21472,664 d=21472,664
X29 a_3708_375# a_3620_472# VSS VPW nfet_05v0 ad=0.3608p pd=2.52u as=0.3608p ps=2.52u w=0.82u l=1u
**devattr s=14432,504 d=14432,504
X30 VDD a_3708_375# a_3620_472# VNW pfet_05v0 ad=0.5368p pd=3.32u as=0.5368p ps=3.32u w=1.22u l=1u
**devattr s=21472,664 d=21472,664
X31 a_1020_375# a_932_472# VSS VPW nfet_05v0 ad=0.3608p pd=2.52u as=0.3608p ps=2.52u w=0.82u l=1u
**devattr s=14432,504 d=14432,504
.ends

.subckt gf180mcu_fd_sc_mcu7t5v0__fillcap_8 VDD VNW VPW VSS
X0 VDD a_572_375# a_484_472# VNW pfet_05v0 ad=0.5368p pd=3.32u as=0.5368p ps=3.32u w=1.22u l=1u
**devattr s=21472,664 d=21472,664
X1 a_572_375# a_484_472# VSS VPW nfet_05v0 ad=0.3608p pd=2.52u as=0.3608p ps=2.52u w=0.82u l=1u
**devattr s=14432,504 d=14432,504
X2 a_124_375# a_36_472# VSS VPW nfet_05v0 ad=0.3608p pd=2.52u as=0.3608p ps=2.52u w=0.82u l=1u
**devattr s=14432,504 d=14432,504
X3 VDD a_124_375# a_36_472# VNW pfet_05v0 ad=0.5368p pd=3.32u as=0.5368p ps=3.32u w=1.22u l=1u
**devattr s=21472,664 d=21472,664
.ends

.subckt gf180mcu_fd_sc_mcu7t5v0__fillcap_32 VDD VNW VPW VSS
X0 VDD a_572_375# a_484_472# VNW pfet_05v0 ad=0.5368p pd=3.32u as=0.5368p ps=3.32u w=1.22u l=1u
**devattr s=21472,664 d=21472,664
X1 VDD a_2364_375# a_2276_472# VNW pfet_05v0 ad=0.5368p pd=3.32u as=0.5368p ps=3.32u w=1.22u l=1u
**devattr s=21472,664 d=21472,664
X2 a_572_375# a_484_472# VSS VPW nfet_05v0 ad=0.3608p pd=2.52u as=0.3608p ps=2.52u w=0.82u l=1u
**devattr s=14432,504 d=14432,504
X3 VDD a_1916_375# a_1828_472# VNW pfet_05v0 ad=0.5368p pd=3.32u as=0.5368p ps=3.32u w=1.22u l=1u
**devattr s=21472,664 d=21472,664
X4 a_124_375# a_36_472# VSS VPW nfet_05v0 ad=0.3608p pd=2.52u as=0.3608p ps=2.52u w=0.82u l=1u
**devattr s=14432,504 d=14432,504
X5 a_1916_375# a_1828_472# VSS VPW nfet_05v0 ad=0.3608p pd=2.52u as=0.3608p ps=2.52u w=0.82u l=1u
**devattr s=14432,504 d=14432,504
X6 a_1468_375# a_1380_472# VSS VPW nfet_05v0 ad=0.3608p pd=2.52u as=0.3608p ps=2.52u w=0.82u l=1u
**devattr s=14432,504 d=14432,504
X7 a_2812_375# a_2724_472# VSS VPW nfet_05v0 ad=0.3608p pd=2.52u as=0.3608p ps=2.52u w=0.82u l=1u
**devattr s=14432,504 d=14432,504
X8 VDD a_3260_375# a_3172_472# VNW pfet_05v0 ad=0.5368p pd=3.32u as=0.5368p ps=3.32u w=1.22u l=1u
**devattr s=21472,664 d=21472,664
X9 a_2364_375# a_2276_472# VSS VPW nfet_05v0 ad=0.3608p pd=2.52u as=0.3608p ps=2.52u w=0.82u l=1u
**devattr s=14432,504 d=14432,504
X10 VDD a_2812_375# a_2724_472# VNW pfet_05v0 ad=0.5368p pd=3.32u as=0.5368p ps=3.32u w=1.22u l=1u
**devattr s=21472,664 d=21472,664
X11 a_3260_375# a_3172_472# VSS VPW nfet_05v0 ad=0.3608p pd=2.52u as=0.3608p ps=2.52u w=0.82u l=1u
**devattr s=14432,504 d=14432,504
X12 VDD a_1020_375# a_932_472# VNW pfet_05v0 ad=0.5368p pd=3.32u as=0.5368p ps=3.32u w=1.22u l=1u
**devattr s=21472,664 d=21472,664
X13 VDD a_1468_375# a_1380_472# VNW pfet_05v0 ad=0.5368p pd=3.32u as=0.5368p ps=3.32u w=1.22u l=1u
**devattr s=21472,664 d=21472,664
X14 VDD a_124_375# a_36_472# VNW pfet_05v0 ad=0.5368p pd=3.32u as=0.5368p ps=3.32u w=1.22u l=1u
**devattr s=21472,664 d=21472,664
X15 a_1020_375# a_932_472# VSS VPW nfet_05v0 ad=0.3608p pd=2.52u as=0.3608p ps=2.52u w=0.82u l=1u
**devattr s=14432,504 d=14432,504
.ends

.subckt gf180mcu_fd_sc_mcu7t5v0__fillcap_4 VDD VNW VPW VSS
X0 a_124_375# a_36_472# VSS VPW nfet_05v0 ad=0.3608p pd=2.52u as=0.3608p ps=2.52u w=0.82u l=1u
**devattr s=14432,504 d=14432,504
X1 VDD a_124_375# a_36_472# VNW pfet_05v0 ad=0.5368p pd=3.32u as=0.5368p ps=3.32u w=1.22u l=1u
**devattr s=21472,664 d=21472,664
.ends

.subckt gf180mcu_fd_sc_mcu7t5v0__buf_8 I Z VDD VNW VPW VSS
X0 a_224_472# I VDD VNW pfet_05v0 ad=0.3782p pd=1.84u as=0.40463p ps=2.08667u w=1.22u l=0.5u
**devattr s=15128,368 d=15128,368
X1 Z a_224_472# VDD VNW pfet_05v0 ad=0.3782p pd=1.84u as=0.40463p ps=2.08667u w=1.22u l=0.5u
**devattr s=15128,368 d=15128,368
X2 a_224_472# I VSS VPW nfet_05v0 ad=0.2132p pd=1.34u as=0.2378p ps=1.53667u w=0.82u l=0.6u
**devattr s=8528,268 d=8528,268
X3 VSS a_224_472# Z VPW nfet_05v0 ad=0.2378p pd=1.53667u as=0.2132p ps=1.34u w=0.82u l=0.6u
**devattr s=8528,268 d=14432,504
X4 VDD a_224_472# Z VNW pfet_05v0 ad=0.40463p pd=2.08667u as=0.3782p ps=1.84u w=1.22u l=0.5u
**devattr s=15128,368 d=15128,368
X5 Z a_224_472# VDD VNW pfet_05v0 ad=0.3782p pd=1.84u as=0.40463p ps=2.08667u w=1.22u l=0.5u
**devattr s=15128,368 d=15128,368
X6 a_224_472# I VSS VPW nfet_05v0 ad=0.2132p pd=1.34u as=0.2378p ps=1.53667u w=0.82u l=0.6u
**devattr s=14432,504 d=8528,268
X7 Z a_224_472# VSS VPW nfet_05v0 ad=0.2132p pd=1.34u as=0.2378p ps=1.53667u w=0.82u l=0.6u
**devattr s=8528,268 d=8528,268
X8 VDD a_224_472# Z VNW pfet_05v0 ad=0.40463p pd=2.08667u as=0.3782p ps=1.84u w=1.22u l=0.5u
**devattr s=15128,368 d=15128,368
X9 Z a_224_472# VSS VPW nfet_05v0 ad=0.2132p pd=1.34u as=0.2378p ps=1.53667u w=0.82u l=0.6u
**devattr s=8528,268 d=8528,268
X10 Z a_224_472# VSS VPW nfet_05v0 ad=0.2132p pd=1.34u as=0.2378p ps=1.53667u w=0.82u l=0.6u
**devattr s=8528,268 d=8528,268
X11 VDD I a_224_472# VNW pfet_05v0 ad=0.40463p pd=2.08667u as=0.3782p ps=1.84u w=1.22u l=0.5u
**devattr s=15128,368 d=15128,368
X12 VDD a_224_472# Z VNW pfet_05v0 ad=0.40463p pd=2.08667u as=0.3782p ps=1.84u w=1.22u l=0.5u
**devattr s=15128,368 d=15128,368
X13 Z a_224_472# VDD VNW pfet_05v0 ad=0.3782p pd=1.84u as=0.40463p ps=2.08667u w=1.22u l=0.5u
**devattr s=15128,368 d=15128,368
X14 VSS a_224_472# Z VPW nfet_05v0 ad=0.2378p pd=1.53667u as=0.2132p ps=1.34u w=0.82u l=0.6u
**devattr s=8528,268 d=8528,268
X15 VDD I a_224_472# VNW pfet_05v0 ad=0.40463p pd=2.08667u as=0.3782p ps=1.84u w=1.22u l=0.5u
**devattr s=15128,368 d=15128,368
X16 VSS a_224_472# Z VPW nfet_05v0 ad=0.2378p pd=1.53667u as=0.2132p ps=1.34u w=0.82u l=0.6u
**devattr s=8528,268 d=8528,268
X17 VDD a_224_472# Z VNW pfet_05v0 ad=0.40463p pd=2.08667u as=0.3782p ps=1.84u w=1.22u l=0.5u
**devattr s=15128,368 d=21472,664
X18 VSS a_224_472# Z VPW nfet_05v0 ad=0.2378p pd=1.53667u as=0.2132p ps=1.34u w=0.82u l=0.6u
**devattr s=8528,268 d=8528,268
X19 Z a_224_472# VDD VNW pfet_05v0 ad=0.3782p pd=1.84u as=0.40463p ps=2.08667u w=1.22u l=0.5u
**devattr s=15128,368 d=15128,368
X20 VSS I a_224_472# VPW nfet_05v0 ad=0.2378p pd=1.53667u as=0.2132p ps=1.34u w=0.82u l=0.6u
**devattr s=8528,268 d=8528,268
X21 a_224_472# I VDD VNW pfet_05v0 ad=0.3782p pd=1.84u as=0.40463p ps=2.08667u w=1.22u l=0.5u
**devattr s=21472,664 d=15128,368
X22 VSS I a_224_472# VPW nfet_05v0 ad=0.2378p pd=1.53667u as=0.2132p ps=1.34u w=0.82u l=0.6u
**devattr s=8528,268 d=8528,268
X23 Z a_224_472# VSS VPW nfet_05v0 ad=0.2132p pd=1.34u as=0.2378p ps=1.53667u w=0.82u l=0.6u
**devattr s=8528,268 d=8528,268
.ends

.subckt gf180mcu_fd_sc_mcu7t5v0__aoi21_1 A1 A2 B ZN VDD VNW VPW VSS
X0 a_244_68# A2 VSS VPW nfet_05v0 ad=0.1312p pd=1.14u as=0.3608p ps=2.72511u w=0.82u l=0.6u
**devattr s=14432,504 d=5248,228
X1 ZN A1 a_244_68# VPW nfet_05v0 ad=0.31678p pd=1.92361u as=0.1312p ps=1.14u w=0.82u l=0.6u
**devattr s=5248,228 d=10276,312
X2 VDD B a_36_472# VNW pfet_05v0 ad=0.5346p pd=3.31u as=0.4779p ps=2.40667u w=1.215u l=0.5u
**devattr s=17982,391 d=21384,662
X3 ZN A2 a_36_472# VNW pfet_05v0 ad=0.3159p pd=1.735u as=0.4779p ps=2.40667u w=1.215u l=0.5u
**devattr s=21384,662 d=12636,347
X4 a_36_472# A1 ZN VNW pfet_05v0 ad=0.4779p pd=2.40667u as=0.3159p ps=1.735u w=1.215u l=0.5u
**devattr s=12636,347 d=17982,391
X5 VSS B ZN VPW nfet_05v0 ad=0.2244p pd=1.69489u as=0.19702p ps=1.19639u w=0.51u l=0.6u
**devattr s=10276,312 d=8976,380
.ends

.subckt gf180mcu_fd_sc_mcu7t5v0__clkbuf_2 I Z VDD VNW VPW VSS
X0 VDD I a_36_160# VNW pfet_05v0 ad=0.42828p pd=2.16971u as=0.4488p ps=2.92u w=1.02u l=0.5u
**devattr s=17952,584 d=18320,404
X1 VSS I a_36_160# VPW nfet_05v0 ad=0.13951p pd=1.14226u as=0.1584p ps=1.6u w=0.36u l=0.6u
**devattr s=6336,320 d=6040,237
X2 VDD a_36_160# Z VNW pfet_05v0 ad=0.51226p pd=2.59514u as=0.3782p ps=1.84u w=1.22u l=0.5u
**devattr s=15128,368 d=21472,664
X3 Z a_36_160# VDD VNW pfet_05v0 ad=0.3782p pd=1.84u as=0.51226p ps=2.59514u w=1.22u l=0.5u
**devattr s=18320,404 d=15128,368
X4 VSS a_36_160# Z VPW nfet_05v0 ad=0.18795p pd=1.53887u as=0.1261p ps=1.005u w=0.485u l=0.6u
**devattr s=5044,201 d=8536,370
X5 Z a_36_160# VSS VPW nfet_05v0 ad=0.1261p pd=1.005u as=0.18795p ps=1.53887u w=0.485u l=0.6u
**devattr s=6040,237 d=5044,201
.ends

.subckt gf180mcu_fd_sc_mcu7t5v0__oai21_1 A1 A2 B ZN VDD VNW VPW VSS
X0 VSS B a_36_68# VPW nfet_05v0 ad=0.3608p pd=2.52u as=0.2624p ps=1.73333u w=0.82u l=0.6u
**devattr s=8528,268 d=14432,504
X1 ZN A2 a_36_68# VPW nfet_05v0 ad=0.2132p pd=1.34u as=0.2624p ps=1.73333u w=0.82u l=0.6u
**devattr s=14432,504 d=8528,268
X2 VDD B ZN VNW pfet_05v0 ad=0.52653p pd=3.15438u as=0.40853p ps=1.8657u w=1.13u l=0.5u
**devattr s=16992,388 d=19888,628
X3 a_244_472# A2 VDD VNW pfet_05v0 ad=0.3172p pd=1.74u as=0.56847p ps=3.40562u w=1.22u l=0.5u
**devattr s=23912,684 d=12688,348
X4 ZN A1 a_244_472# VNW pfet_05v0 ad=0.44107p pd=2.0143u as=0.3172p ps=1.74u w=1.22u l=0.5u
**devattr s=12688,348 d=16992,388
X5 a_36_68# A1 ZN VPW nfet_05v0 ad=0.2624p pd=1.73333u as=0.2132p ps=1.34u w=0.82u l=0.6u
**devattr s=8528,268 d=8528,268
.ends

.subckt gf180mcu_fd_sc_mcu7t5v0__nand2_1 A1 A2 ZN VDD VNW VPW VSS
X0 ZN A2 VDD VNW pfet_05v0 ad=0.2938p pd=1.65u as=0.4972p ps=3.14u w=1.13u l=0.5u
**devattr s=19888,628 d=11752,330
X1 ZN A1 a_245_68# VPW nfet_05v0 ad=0.3608p pd=2.52u as=0.1312p ps=1.14u w=0.82u l=0.6u
**devattr s=5248,228 d=14432,504
X2 VDD A1 ZN VNW pfet_05v0 ad=0.4972p pd=3.14u as=0.2938p ps=1.65u w=1.13u l=0.5u
**devattr s=11752,330 d=19888,628
X3 a_245_68# A2 VSS VPW nfet_05v0 ad=0.1312p pd=1.14u as=0.3608p ps=2.52u w=0.82u l=0.6u
**devattr s=14432,504 d=5248,228
.ends

.subckt gf180mcu_fd_sc_mcu7t5v0__fillcap_16 VDD VNW VPW VSS
X0 VDD a_572_375# a_484_472# VNW pfet_05v0 ad=0.5368p pd=3.32u as=0.5368p ps=3.32u w=1.22u l=1u
**devattr s=21472,664 d=21472,664
X1 a_572_375# a_484_472# VSS VPW nfet_05v0 ad=0.3608p pd=2.52u as=0.3608p ps=2.52u w=0.82u l=1u
**devattr s=14432,504 d=14432,504
X2 a_124_375# a_36_472# VSS VPW nfet_05v0 ad=0.3608p pd=2.52u as=0.3608p ps=2.52u w=0.82u l=1u
**devattr s=14432,504 d=14432,504
X3 a_1468_375# a_1380_472# VSS VPW nfet_05v0 ad=0.3608p pd=2.52u as=0.3608p ps=2.52u w=0.82u l=1u
**devattr s=14432,504 d=14432,504
X4 VDD a_1020_375# a_932_472# VNW pfet_05v0 ad=0.5368p pd=3.32u as=0.5368p ps=3.32u w=1.22u l=1u
**devattr s=21472,664 d=21472,664
X5 VDD a_1468_375# a_1380_472# VNW pfet_05v0 ad=0.5368p pd=3.32u as=0.5368p ps=3.32u w=1.22u l=1u
**devattr s=21472,664 d=21472,664
X6 VDD a_124_375# a_36_472# VNW pfet_05v0 ad=0.5368p pd=3.32u as=0.5368p ps=3.32u w=1.22u l=1u
**devattr s=21472,664 d=21472,664
X7 a_1020_375# a_932_472# VSS VPW nfet_05v0 ad=0.3608p pd=2.52u as=0.3608p ps=2.52u w=0.82u l=1u
**devattr s=14432,504 d=14432,504
.ends

.subckt gf180mcu_fd_sc_mcu7t5v0__nand4_4 A1 A2 A3 A4 ZN VDD VNW VPW VSS
X0 ZN A2 VDD VNW pfet_05v0 ad=0.2197p pd=1.365u as=0.28519p ps=1.62562u w=0.845u l=0.5u
**devattr s=8788,273 d=8788,273
X1 VDD A1 ZN VNW pfet_05v0 ad=0.28519p pd=1.62562u as=0.2197p ps=1.365u w=0.845u l=0.5u
**devattr s=8788,273 d=16224,361
X2 ZN A3 VDD VNW pfet_05v0 ad=0.2197p pd=1.365u as=0.28519p ps=1.62562u w=0.845u l=0.5u
**devattr s=14872,514 d=8788,273
X3 a_244_68# A3 a_36_68# VPW nfet_05v0 ad=0.1312p pd=1.14u as=0.2624p ps=1.73333u w=0.82u l=0.6u
**devattr s=14432,504 d=5248,228
X4 VSS A4 a_244_68# VPW nfet_05v0 ad=0.2132p pd=1.34u as=0.1312p ps=1.14u w=0.82u l=0.6u
**devattr s=5248,228 d=8528,268
X5 a_1468_68# A4 VSS VPW nfet_05v0 ad=0.1517p pd=1.19u as=0.2132p ps=1.34u w=0.82u l=0.6u
**devattr s=8528,268 d=6068,238
X6 VDD A4 ZN VNW pfet_05v0 ad=0.28519p pd=1.62562u as=0.2197p ps=1.365u w=0.845u l=0.5u
**devattr s=8788,273 d=8788,273
X7 a_1866_68# A2 a_1662_68# VPW nfet_05v0 ad=0.1517p pd=1.19u as=0.1722p ps=1.24u w=0.82u l=0.6u
**devattr s=6888,248 d=6068,238
X8 ZN A4 VDD VNW pfet_05v0 ad=0.2197p pd=1.365u as=0.28519p ps=1.62562u w=0.845u l=0.5u
**devattr s=8788,273 d=8788,273
X9 ZN A1 VDD VNW pfet_05v0 ad=0.2197p pd=1.365u as=0.28519p ps=1.62562u w=0.845u l=0.5u
**devattr s=16224,361 d=8788,273
X10 a_3276_68# A1 ZN VPW nfet_05v0 ad=0.1312p pd=1.14u as=0.4161p ps=1.905u w=0.82u l=0.6u
**devattr s=16644,381 d=5248,228
X11 a_652_68# A4 VSS VPW nfet_05v0 ad=0.1312p pd=1.14u as=0.2132p ps=1.34u w=0.82u l=0.6u
**devattr s=8528,268 d=5248,228
X12 a_36_68# A3 a_652_68# VPW nfet_05v0 ad=0.2624p pd=1.73333u as=0.1312p ps=1.14u w=0.82u l=0.6u
**devattr s=5248,228 d=8528,268
X13 VDD A2 ZN VNW pfet_05v0 ad=0.28519p pd=1.62562u as=0.2197p ps=1.365u w=0.845u l=0.5u
**devattr s=8788,273 d=14872,514
X14 VDD A3 ZN VNW pfet_05v0 ad=0.28519p pd=1.62562u as=0.2197p ps=1.365u w=0.845u l=0.5u
**devattr s=8788,273 d=8788,273
X15 VSS A4 a_1060_68# VPW nfet_05v0 ad=0.2132p pd=1.34u as=0.1312p ps=1.14u w=0.82u l=0.6u
**devattr s=5248,228 d=8528,268
X16 ZN A3 VDD VNW pfet_05v0 ad=0.2197p pd=1.365u as=0.28519p ps=1.62562u w=0.845u l=0.5u
**devattr s=8788,273 d=8788,273
X17 a_2372_68# A1 ZN VPW nfet_05v0 ad=0.1312p pd=1.14u as=0.4161p ps=1.905u w=0.82u l=0.6u
**devattr s=16644,381 d=5248,228
X18 a_36_68# A2 a_2372_68# VPW nfet_05v0 ad=0.2624p pd=1.73333u as=0.1312p ps=1.14u w=0.82u l=0.6u
**devattr s=5248,228 d=8528,268
X19 ZN A1 VDD VNW pfet_05v0 ad=0.2197p pd=1.365u as=0.28519p ps=1.62562u w=0.845u l=0.5u
**devattr s=16224,361 d=8788,273
X20 a_1060_68# A3 a_36_68# VPW nfet_05v0 ad=0.1312p pd=1.14u as=0.2624p ps=1.73333u w=0.82u l=0.6u
**devattr s=8528,268 d=5248,228
X21 VDD A2 ZN VNW pfet_05v0 ad=0.28519p pd=1.62562u as=0.2197p ps=1.365u w=0.845u l=0.5u
**devattr s=8788,273 d=8788,273
X22 VDD A4 ZN VNW pfet_05v0 ad=0.28519p pd=1.62562u as=0.2197p ps=1.365u w=0.845u l=0.5u
**devattr s=8788,273 d=8788,273
X23 ZN A2 VDD VNW pfet_05v0 ad=0.2197p pd=1.365u as=0.28519p ps=1.62562u w=0.845u l=0.5u
**devattr s=8788,273 d=8788,273
X24 ZN A1 a_2780_68# VPW nfet_05v0 ad=0.4161p pd=1.905u as=0.1312p ps=1.14u w=0.82u l=0.6u
**devattr s=5248,228 d=16644,381
X25 a_2780_68# A2 a_36_68# VPW nfet_05v0 ad=0.1312p pd=1.14u as=0.2624p ps=1.73333u w=0.82u l=0.6u
**devattr s=8528,268 d=5248,228
X26 ZN A4 VDD VNW pfet_05v0 ad=0.2197p pd=1.365u as=0.28519p ps=1.62562u w=0.845u l=0.5u
**devattr s=8788,273 d=8788,273
X27 VDD A1 ZN VNW pfet_05v0 ad=0.28519p pd=1.62562u as=0.2197p ps=1.365u w=0.845u l=0.5u
**devattr s=8788,273 d=16224,361
X28 a_36_68# A2 a_3276_68# VPW nfet_05v0 ad=0.2624p pd=1.73333u as=0.1312p ps=1.14u w=0.82u l=0.6u
**devattr s=5248,228 d=14432,504
X29 VDD A3 ZN VNW pfet_05v0 ad=0.28519p pd=1.62562u as=0.2197p ps=1.365u w=0.845u l=0.5u
**devattr s=8788,273 d=8788,273
X30 a_1662_68# A3 a_1468_68# VPW nfet_05v0 ad=0.1722p pd=1.24u as=0.1517p ps=1.19u w=0.82u l=0.6u
**devattr s=6068,238 d=6888,248
X31 ZN A1 a_1866_68# VPW nfet_05v0 ad=0.4161p pd=1.905u as=0.1517p ps=1.19u w=0.82u l=0.6u
**devattr s=6068,238 d=16644,381
.ends

.subckt gf180mcu_fd_sc_mcu7t5v0__tiel ZN VDD VNW VPW VSS
X0 ZN a_124_24# VSS VPW nfet_05v0 ad=0.3608p pd=2.52u as=0.3608p ps=2.52u w=0.82u l=0.6u
**devattr s=14432,504 d=14432,504
X1 a_124_24# a_124_24# VDD VNW pfet_05v0 ad=0.5368p pd=3.32u as=0.5368p ps=3.32u w=1.22u l=0.5u
**devattr s=21472,664 d=21472,664
.ends

.subckt gf180mcu_fd_sc_mcu7t5v0__clkbuf_1 I Z VDD VNW VPW VSS
X0 VDD I a_36_113# VNW pfet_05v0 ad=0.37143p pd=1.77621u as=0.462p ps=2.98u w=1.05u l=0.5u
**devattr s=18480,596 d=16060,384
X1 Z a_36_113# VDD VNW pfet_05v0 ad=0.5368p pd=3.32u as=0.43157p ps=2.06379u w=1.22u l=0.5u
**devattr s=16060,384 d=21472,664
X2 Z a_36_113# VSS VPW nfet_05v0 ad=0.2178p pd=1.87u as=0.17716p ps=1.38368u w=0.495u l=0.6u
**devattr s=6120,239 d=8712,374
X3 VSS I a_36_113# VPW nfet_05v0 ad=0.12884p pd=1.00632u as=0.1584p ps=1.6u w=0.36u l=0.6u
**devattr s=6336,320 d=6120,239
.ends

.subckt gf180mcu_fd_sc_mcu7t5v0__nor2_1 A1 A2 ZN VDD VNW VPW VSS
X0 ZN A1 a_224_472# VNW pfet_05v0 ad=0.5368p pd=3.32u as=0.4087p ps=1.89u w=1.22u l=0.5u
**devattr s=16348,378 d=21472,664
X1 VSS A1 ZN VPW nfet_05v0 ad=0.2486p pd=2.01u as=0.1469p ps=1.085u w=0.565u l=0.6u
**devattr s=5876,217 d=9944,402
X2 a_224_472# A2 VDD VNW pfet_05v0 ad=0.4087p pd=1.89u as=0.5368p ps=3.32u w=1.22u l=0.5u
**devattr s=21472,664 d=16348,378
X3 ZN A2 VSS VPW nfet_05v0 ad=0.1469p pd=1.085u as=0.2486p ps=2.01u w=0.565u l=0.6u
**devattr s=9944,402 d=5876,217
.ends

.subckt gf180mcu_fd_sc_mcu7t5v0__tieh Z VDD VNW VPW VSS
X0 Z a_125_24# VDD VNW pfet_05v0 ad=0.5368p pd=3.32u as=0.5368p ps=3.32u w=1.22u l=0.5u
**devattr s=21472,664 d=21472,664
X1 a_125_24# a_125_24# VSS VPW nfet_05v0 ad=0.3608p pd=2.52u as=0.3608p ps=2.52u w=0.82u l=0.6u
**devattr s=14432,504 d=14432,504
.ends

.subckt gf180mcu_fd_sc_mcu7t5v0__buf_4 I Z VDD VNW VPW VSS
X0 Z a_224_472# VDD VNW pfet_05v0 ad=0.3782p pd=1.84u as=0.43107p ps=2.33333u w=1.22u l=0.5u
**devattr s=15128,368 d=15128,368
X1 Z a_224_472# VSS VPW nfet_05v0 ad=0.2132p pd=1.34u as=0.2624p ps=1.73333u w=0.82u l=0.6u
**devattr s=8528,268 d=8528,268
X2 VDD a_224_472# Z VNW pfet_05v0 ad=0.43107p pd=2.33333u as=0.3782p ps=1.84u w=1.22u l=0.5u
**devattr s=15128,368 d=21472,664
X3 a_224_472# I VSS VPW nfet_05v0 ad=0.2132p pd=1.34u as=0.2624p ps=1.73333u w=0.82u l=0.6u
**devattr s=14432,504 d=8528,268
X4 VDD I a_224_472# VNW pfet_05v0 ad=0.43107p pd=2.33333u as=0.3782p ps=1.84u w=1.22u l=0.5u
**devattr s=15128,368 d=15128,368
X5 Z a_224_472# VDD VNW pfet_05v0 ad=0.3782p pd=1.84u as=0.43107p ps=2.33333u w=1.22u l=0.5u
**devattr s=15128,368 d=15128,368
X6 VDD a_224_472# Z VNW pfet_05v0 ad=0.43107p pd=2.33333u as=0.3782p ps=1.84u w=1.22u l=0.5u
**devattr s=15128,368 d=15128,368
X7 VSS a_224_472# Z VPW nfet_05v0 ad=0.2624p pd=1.73333u as=0.2132p ps=1.34u w=0.82u l=0.6u
**devattr s=8528,268 d=14432,504
X8 VSS a_224_472# Z VPW nfet_05v0 ad=0.2624p pd=1.73333u as=0.2132p ps=1.34u w=0.82u l=0.6u
**devattr s=8528,268 d=8528,268
X9 a_224_472# I VDD VNW pfet_05v0 ad=0.3782p pd=1.84u as=0.43107p ps=2.33333u w=1.22u l=0.5u
**devattr s=21472,664 d=15128,368
X10 VSS I a_224_472# VPW nfet_05v0 ad=0.2624p pd=1.73333u as=0.2132p ps=1.34u w=0.82u l=0.6u
**devattr s=8528,268 d=8528,268
X11 Z a_224_472# VSS VPW nfet_05v0 ad=0.2132p pd=1.34u as=0.2624p ps=1.73333u w=0.82u l=0.6u
**devattr s=8528,268 d=8528,268
.ends

.subckt gf180mcu_fd_sc_mcu7t5v0__nand3_2 A1 A2 A3 ZN VDD VNW VPW VSS
X0 ZN A1 VDD VNW pfet_05v0 ad=0.2561p pd=1.505u as=0.3152p ps=1.95333u w=0.985u l=0.5u
**devattr s=10244,301 d=10244,301
X1 VDD A1 ZN VNW pfet_05v0 ad=0.3152p pd=1.95333u as=0.2561p ps=1.505u w=0.985u l=0.5u
**devattr s=10244,301 d=10244,301
X2 a_1044_68# A2 a_860_68# VPW nfet_05v0 ad=0.1722p pd=1.24u as=0.1312p ps=1.14u w=0.82u l=0.6u
**devattr s=5248,228 d=6888,248
X3 a_860_68# A1 ZN VPW nfet_05v0 ad=0.1312p pd=1.14u as=0.2132p ps=1.34u w=0.82u l=0.6u
**devattr s=8528,268 d=5248,228
X4 ZN A2 VDD VNW pfet_05v0 ad=0.2561p pd=1.505u as=0.3152p ps=1.95333u w=0.985u l=0.5u
**devattr s=10244,301 d=10244,301
X5 VDD A3 ZN VNW pfet_05v0 ad=0.3152p pd=1.95333u as=0.2561p ps=1.505u w=0.985u l=0.5u
**devattr s=10244,301 d=17336,570
X6 VSS A3 a_1044_68# VPW nfet_05v0 ad=0.3608p pd=2.52u as=0.1722p ps=1.24u w=0.82u l=0.6u
**devattr s=6888,248 d=14432,504
X7 a_276_68# A3 VSS VPW nfet_05v0 ad=0.1148p pd=1.1u as=0.3608p ps=2.52u w=0.82u l=0.6u
**devattr s=14432,504 d=4592,220
X8 ZN A3 VDD VNW pfet_05v0 ad=0.2561p pd=1.505u as=0.3152p ps=1.95333u w=0.985u l=0.5u
**devattr s=17336,570 d=10244,301
X9 VDD A2 ZN VNW pfet_05v0 ad=0.3152p pd=1.95333u as=0.2561p ps=1.505u w=0.985u l=0.5u
**devattr s=10244,301 d=10244,301
X10 a_452_68# A2 a_276_68# VPW nfet_05v0 ad=0.1312p pd=1.14u as=0.1148p ps=1.1u w=0.82u l=0.6u
**devattr s=4592,220 d=5248,228
X11 ZN A1 a_452_68# VPW nfet_05v0 ad=0.2132p pd=1.34u as=0.1312p ps=1.14u w=0.82u l=0.6u
**devattr s=5248,228 d=8528,268
.ends

.subckt gf180mcu_fd_sc_mcu7t5v0__clkbuf_16 I Z VDD VNW VPW VSS
X0 VSS I a_224_552# VPW nfet_05v0 ad=0.11224p pd=0.92685u as=0.1296p ps=1.18u w=0.405u l=0.6u
**devattr s=4212,185 d=4212,185
X1 VSS a_224_552# Z VPW nfet_05v0 ad=0.13441p pd=1.10993u as=0.1261p ps=1.005u w=0.485u l=0.6u
**devattr s=5044,201 d=5044,201
X2 a_224_552# I VDD VNW pfet_05v0 ad=0.2542p pd=1.44u as=0.26957p ps=1.39224u w=0.82u l=0.5u
**devattr s=10168,288 d=10168,288
X3 Z a_224_552# VDD VNW pfet_05v0 ad=0.3782p pd=1.84u as=0.40107p ps=2.07138u w=1.22u l=0.5u
**devattr s=15128,368 d=15128,368
X4 Z a_224_552# VSS VPW nfet_05v0 ad=0.1261p pd=1.005u as=0.13441p ps=1.10993u w=0.485u l=0.6u
**devattr s=5044,201 d=5044,201
X5 VDD a_224_552# Z VNW pfet_05v0 ad=0.40107p pd=2.07138u as=0.3782p ps=1.84u w=1.22u l=0.5u
**devattr s=15128,368 d=15128,368
X6 VDD a_224_552# Z VNW pfet_05v0 ad=0.40107p pd=2.07138u as=0.3782p ps=1.84u w=1.22u l=0.5u
**devattr s=15128,368 d=15128,368
X7 Z a_224_552# VDD VNW pfet_05v0 ad=0.3782p pd=1.84u as=0.40107p ps=2.07138u w=1.22u l=0.5u
**devattr s=15128,368 d=15128,368
X8 a_224_552# I VDD VNW pfet_05v0 ad=0.2542p pd=1.44u as=0.26957p ps=1.39224u w=0.82u l=0.5u
**devattr s=14432,504 d=10168,288
X9 VDD a_224_552# Z VNW pfet_05v0 ad=0.40107p pd=2.07138u as=0.3782p ps=1.84u w=1.22u l=0.5u
**devattr s=15128,368 d=15128,368
X10 Z a_224_552# VSS VPW nfet_05v0 ad=0.1261p pd=1.005u as=0.13441p ps=1.10993u w=0.485u l=0.6u
**devattr s=5044,201 d=5044,201
X11 VSS a_224_552# Z VPW nfet_05v0 ad=0.13441p pd=1.10993u as=0.1261p ps=1.005u w=0.485u l=0.6u
**devattr s=5044,201 d=5044,201
X12 VSS a_224_552# Z VPW nfet_05v0 ad=0.13441p pd=1.10993u as=0.1261p ps=1.005u w=0.485u l=0.6u
**devattr s=5044,201 d=5044,201
X13 VDD a_224_552# Z VNW pfet_05v0 ad=0.40107p pd=2.07138u as=0.3782p ps=1.84u w=1.22u l=0.5u
**devattr s=15128,368 d=21472,664
X14 Z a_224_552# VSS VPW nfet_05v0 ad=0.1261p pd=1.005u as=0.13441p ps=1.10993u w=0.485u l=0.6u
**devattr s=5044,201 d=5044,201
X15 VSS I a_224_552# VPW nfet_05v0 ad=0.11224p pd=0.92685u as=0.1296p ps=1.18u w=0.405u l=0.6u
**devattr s=7128,338 d=4212,185
X16 a_224_552# I VDD VNW pfet_05v0 ad=0.2542p pd=1.44u as=0.26957p ps=1.39224u w=0.82u l=0.5u
**devattr s=10168,288 d=10168,288
X17 a_224_552# I VSS VPW nfet_05v0 ad=0.1296p pd=1.18u as=0.11224p ps=0.92685u w=0.405u l=0.6u
**devattr s=4212,185 d=4212,185
X18 VSS a_224_552# Z VPW nfet_05v0 ad=0.13441p pd=1.10993u as=0.1261p ps=1.005u w=0.485u l=0.6u
**devattr s=5044,201 d=5044,201
X19 Z a_224_552# VDD VNW pfet_05v0 ad=0.3782p pd=1.84u as=0.40107p ps=2.07138u w=1.22u l=0.5u
**devattr s=17120,404 d=15128,368
X20 VDD I a_224_552# VNW pfet_05v0 ad=0.26957p pd=1.39224u as=0.2542p ps=1.44u w=0.82u l=0.5u
**devattr s=10168,288 d=10168,288
X21 Z a_224_552# VDD VNW pfet_05v0 ad=0.3782p pd=1.84u as=0.40107p ps=2.07138u w=1.22u l=0.5u
**devattr s=15128,368 d=15128,368
X22 Z a_224_552# VDD VNW pfet_05v0 ad=0.3782p pd=1.84u as=0.40107p ps=2.07138u w=1.22u l=0.5u
**devattr s=15128,368 d=15128,368
X23 VSS I a_224_552# VPW nfet_05v0 ad=0.11224p pd=0.92685u as=0.1296p ps=1.18u w=0.405u l=0.6u
**devattr s=4212,185 d=4212,185